Circuit: *** SPICE deck for cell baseInv{sch} from library Leveille_hw5

Vgd: both pins shorted together -- ignoring.
Ignoring BSIM parameter XL
Ignoring BSIM parameter XW
Ignoring BSIM parameter XL
Ignoring BSIM parameter XW
Fatal Error: No analysis request found.
