Circuit: *** SPICE deck for cell inv2{sch} from library Leveille_hw5

Vgd: both pins shorted together -- ignoring.
