Circuit: *** SPICE deck for cell Nand2{lay} from library Leveille_myGates-2020-02-10

