Circuit: *** SPICE deck for cell partA{sch} from library Leveille_HW6

Vgd: both pins shorted together -- ignoring.
WARNING: Less than two connections to node VDD.  This node is used by VDD.
Direct Newton iteration for .op point succeeded.


Measurement "tphl" FAIL'ed

Measurement "tplh" FAIL'ed

Measurement "tpavg" FAIL'ed

Measurement "trise" FAIL'ed

Measurement "tfall" FAIL'ed


Date: Sun Mar 22 11:34:06 2020
Total elapsed time: 0.107 seconds.

tnom = 27
temp = 27
method = modified trap
totiter = 2155
traniter = 2152
tranpoints = 1077
accept = 1068
rejected = 9
matrix size = 8
fillins = 0
solver = Normal
Matrix Compiler1: 192 bytes object code size  0.1/0.1/[0.0]
Matrix Compiler2: 478 bytes object code size  0.1/0.1/[0.0]

