Circuit: *** SPICE deck for cell test_Cell{sch} from library Leveille_HW7

Vgnd: both pins shorted together -- ignoring.
Ignoring BSIM parameter XL
Ignoring BSIM parameter XW
Ignoring BSIM parameter XL
Ignoring BSIM parameter XW
Warning: Pd = 0 is less than W.
Warning: Ps = 0 is less than W.
Warning: Pd = 0 is less than W.
Warning: Ps = 0 is less than W.
Per .tran options, skipping operating point for transient analysis.

Date: Thu Apr  2 23:52:34 2020
Total elapsed time: 7.351 seconds.

tnom = 27
temp = 27
method = modified trap
totiter = 177862
traniter = 177862
tranpoints = 64214
accept = 48377
rejected = 15837
matrix size = 20
fillins = 4
solver = Normal
Thread vector: 55.7/22.4[4] 19.6/5.4[4] 4.0/2.8[4] 0.4/4.8[1]  2592/500
Matrix Compiler1: 2.57 KB object code size  2.2/3.9/[0.4]
Matrix Compiler2: 2.38 KB object code size  0.8/3.2/[0.4]

