Circuit: *** SPICE deck for cell test_Cell{sch} from library Leveille_HW7

Vgnd: both pins shorted together -- ignoring.
Ignoring BSIM parameter XL
Ignoring BSIM parameter XW
Ignoring BSIM parameter XL
Ignoring BSIM parameter XW
Warning: Pd = 0 is less than W.
Warning: Ps = 0 is less than W.
Warning: Pd = 0 is less than W.
Warning: Ps = 0 is less than W.
Per .tran options, skipping operating point for transient analysis.

Date: Thu Mar 26 15:31:09 2020
Total elapsed time: 5.783 seconds.

tnom = 27
temp = 27
method = modified trap
totiter = 211709
traniter = 211709
tranpoints = 74291
accept = 56053
rejected = 18238
matrix size = 20
fillins = 4
solver = Normal
Thread vector: 31.6/16.1[4] 10.1/3.6[4] 3.2/2.4[3] 0.1/1.3[1]  2592/500
Matrix Compiler1: 2.57 KB object code size  0.5/0.4/[0.3]
Matrix Compiler2: 2.38 KB object code size  0.2/0.9/[0.2]

