Circuit: *** SPICE deck for cell test_Cell{sch} from library Leveille_HW7

Vgnd: both pins shorted together -- ignoring.
Ignoring BSIM parameter XL
Ignoring BSIM parameter XW
Ignoring BSIM parameter XL
Ignoring BSIM parameter XW
